 .Sol file Watershed HRU:9 Subbasin:5 HRU:1 Luse:GRAS Soil: I-Re-Yh-c-3129 Slope: 0-9999 11/14/2011 12:00:00 AM ArcSWAT 2009.93.7
 Soil Name: I-Re-Yh-c-3129
 Soil Hydrologic Group: C
 Maximum rooting depth(m) :  690.00
 Porosity fraction from which anions are excluded: 0.500
 Crack volume potential of soil: 0.500
 Texture 1                : LOAM
 Depth                [mm]:      300.00     1000.00
 Bulk Density Moist [g/cc]:        1.20        1.30
 Ave. AW Incl. Rock Frag  :        0.12        0.12
 Ksat. (est.)      [mm/hr]:       16.69        7.68
 Organic Carbon [weight %]:        0.70        0.60
 Clay           [weight %]:       20.00       24.00
 Silt           [weight %]:       33.00       35.00
 Sand           [weight %]:       47.00       40.00
 Rock Fragments   [vol. %]:        0.00        0.00
 Soil Albedo (Moist)      :        0.13        0.15
 Erosion K                :        0.31        0.31
 Salinity (EC, Form 5)    :        0.00        0.00
                              
