 .Sol file Watershed HRU:11 Subbasin:6 HRU:1 Luse:CRWO Soil: Rc36-3c-3256 Slope: 0-9999 11/14/2011 12:00:00 AM ArcSWAT 2009.93.7
 Soil Name: Rc36-3c-3256
 Soil Hydrologic Group: D
 Maximum rooting depth(m) :  930.00
 Porosity fraction from which anions are excluded: 0.500
 Crack volume potential of soil: 0.500
 Texture 1                : LOAM
 Depth                [mm]:      300.00     1000.00
 Bulk Density Moist [g/cc]:        1.50        1.50
 Ave. AW Incl. Rock Frag  :        0.12        0.12
 Ksat. (est.)      [mm/hr]:        2.81        2.42
 Organic Carbon [weight %]:        0.70        0.50
 Clay           [weight %]:       25.00       30.00
 Silt           [weight %]:       46.00       41.00
 Sand           [weight %]:       29.00       29.00
 Rock Fragments   [vol. %]:        0.00        0.00
 Soil Albedo (Moist)      :        0.13        0.19
 Erosion K                :        0.34        0.34
 Salinity (EC, Form 5)    :        0.00        0.00
                              
