 .Wgn file Subbasin: 8 STATION NAME:Takab 11/14/2011 12:00:00 AM ArcSWAT 2009.93.7
  LATITUDE =  36.38 LONGITUDE =  47.12
  ELEV [m] =1765.00
  RAIN_YRS =  19.00
  0.40  1.90  7.50 14.90 20.20 26.80 31.20 31.40 26.50 18.80 10.30  3.70
 -8.90 -8.00 -3.00  2.40  5.70  8.80 13.40 12.60  7.40  3.60 -1.10 -5.30
  4.10  4.40  4.90  4.30  4.00  3.30  2.50  2.50  3.10  4.00  4.30  4.60
  6.10  6.30  4.40  3.50  2.90  2.50  3.20  3.00  2.80  3.20  4.10  5.40
 36.00 35.30 50.40 66.50 40.40  8.50  4.70  3.90  1.20 23.80 44.40 36.00
  4.86  4.55  6.28  8.42  5.58  3.78  2.97  3.75  1.77  5.14  8.28  6.27
  3.51  1.92  3.68  2.54  2.90  2.10  1.42  1.86  2.36  2.75  2.47  3.54
  0.23  0.26  0.24  0.27  0.19  0.06  0.03  0.04  0.02  0.14  0.15  0.21
  0.48  0.43  0.54  0.50  0.48  0.29  0.42  0.13  0.29  0.40  0.51  0.48
  9.60  8.80 10.70 10.60  8.30  2.40  1.60  1.30  0.70  5.70  7.10  8.80
  2.42  1.75  4.42  4.08  3.42  1.08  0.83  1.17  0.83  3.58  3.50  3.50
  0.00  0.00  0.00  0.00  0.00  0.00  0.00  0.00  0.00  0.00  0.00  0.00
  0.00  0.00  0.00  0.00  0.00  0.00  0.00  0.00  0.00  0.00  0.00  0.00
  2.36  2.99  4.05  5.61  5.31  4.53  5.33  5.15  4.32  3.98  3.03  2.39
