 .Sol file Watershed HRU:34 Subbasin:18 HRU:1 Luse:GRAS Soil: Xh39-3ab-3292 Slope: 0-9999 11/14/2011 12:00:00 AM ArcSWAT 2009.93.7
 Soil Name: Xh39-3ab-3292
 Soil Hydrologic Group: D
 Maximum rooting depth(m) : 1000.00
 Porosity fraction from which anions are excluded: 0.500
 Crack volume potential of soil: 0.500
 Texture 1                : CLAY-LOAM
 Depth                [mm]:      300.00     1000.00
 Bulk Density Moist [g/cc]:        1.40        1.40
 Ave. AW Incl. Rock Frag  :        0.18        0.18
 Ksat. (est.)      [mm/hr]:        3.95        4.40
 Organic Carbon [weight %]:        0.60        0.40
 Clay           [weight %]:       39.00       46.00
 Silt           [weight %]:       40.00       34.00
 Sand           [weight %]:       21.00       20.00
 Rock Fragments   [vol. %]:        0.00        0.00
 Soil Albedo (Moist)      :        0.15        0.23
 Erosion K                :        0.32        0.32
 Salinity (EC, Form 5)    :        0.00        0.00
                              
