 .Sol file Watershed HRU:10 Subbasin:5 HRU:2 Luse:GRAS Soil: Xk5-3ab-3304 Slope: 0-9999 11/14/2011 12:00:00 AM ArcSWAT 2009.93.7
 Soil Name: Xk5-3ab-3304
 Soil Hydrologic Group: D
 Maximum rooting depth(m) : 1000.00
 Porosity fraction from which anions are excluded: 0.500
 Crack volume potential of soil: 0.500
 Texture 1                : CLAY-LOAM
 Depth                [mm]:      300.00     1000.00
 Bulk Density Moist [g/cc]:        1.40        1.40
 Ave. AW Incl. Rock Frag  :        0.18        0.18
 Ksat. (est.)      [mm/hr]:        5.78        0.10
 Organic Carbon [weight %]:        0.70        0.40
 Clay           [weight %]:       36.00       33.00
 Silt           [weight %]:       22.00       15.00
 Sand           [weight %]:       42.00       50.00
 Rock Fragments   [vol. %]:        0.00        0.00
 Soil Albedo (Moist)      :        0.13        0.23
 Erosion K                :        0.36        0.36
 Salinity (EC, Form 5)    :        0.00        0.00
                              
