 .Wgn file Subbasin: 9 STATION NAME:Zanjan 11/14/2011 12:00:00 AM ArcSWAT 2009.93.7
  LATITUDE =  36.68 LONGITUDE =  48.48
  ELEV [m] =1663.00
  RAIN_YRS =  23.00
  2.60  4.10  9.60 17.30 22.10 28.40 31.60 31.60 27.70 20.00 11.80  5.00
 -7.40 -6.20 -1.80  3.80  7.20 10.80 14.40 14.00  9.40  5.20  0.50 -4.50
  4.70  5.00  5.30  4.40  4.20  3.60  3.10  3.30  3.40  4.30  4.50  4.90
  6.00  5.80  4.60  3.80  3.10  2.80  2.80  2.80  2.90  3.30  4.00  5.40
 27.60 26.70 41.60 47.50 39.10  8.10  6.80  4.50  2.20 24.30 34.90 27.20
  4.14  3.64  5.54  6.01  5.64  4.09  3.27  3.69  3.17  5.70  5.50  4.42
  2.17  2.44  3.40  2.48  2.24  3.40  1.16  1.84  2.31  2.54  2.02  2.74
  0.21  0.23  0.23  0.25  0.19  0.06  0.04  0.03  0.03  0.10  0.15  0.19
  0.39  0.40  0.50  0.45  0.50  0.30  0.42  0.36  0.11  0.42  0.52  0.43
  7.80  8.00  9.60  9.40  8.50  2.50  2.00  1.40  0.80  4.70  7.30  7.70
  1.43  2.01  3.72  3.17  2.58  1.33  1.02  1.18  1.00  2.58  2.27  2.67
  0.00  0.00  0.00  0.00  0.00  0.00  0.00  0.00  0.00  0.00  0.00  0.00
  0.00  0.00  0.00  0.00  0.00  0.00  0.00  0.00  0.00  0.00  0.00  0.00
  4.39  4.96  5.27  5.26  4.82  5.03  5.56  5.38  4.40  4.05  4.08  4.10
