 .Wgn file Subbasin: 4 STATION NAME:Mianeh 11/14/2011 12:00:00 AM ArcSWAT 2009.93.7
  LATITUDE =  37.45 LONGITUDE =  47.70
  ELEV [m] =1110.00
  RAIN_YRS =  18.00
  2.90  6.10 13.10 20.30 25.50 32.10 34.80 35.20 30.80 23.10 13.60  6.40
 -5.60 -4.20  1.00  6.60 10.60 15.50 19.10 19.10 14.30  8.70  2.20 -1.80
  5.60  6.00  5.50  4.70  4.40  3.60  3.00  3.30  3.80  4.80  4.80  4.90
  5.80  5.40  3.70  3.50  2.80  2.80  2.60  2.40  2.90  3.10  4.10  4.20
 35.60 22.80 41.10 45.70 30.30  6.30  7.60  3.30  3.70 17.60 34.00 32.90
  5.50  3.81  5.97  5.81  4.52  2.76  8.03  3.30  3.25  5.64  6.94  6.19
  2.54  1.94  3.27  2.06  2.38  2.11  2.93  1.57  2.61  2.55  2.45  2.65
  0.20  0.19  0.22  0.24  0.19  0.07  0.04  0.03  0.04  0.11  0.13  0.15
  0.41  0.35  0.44  0.48  0.46  0.24  0.21  0.11  0.16  0.26  0.52  0.44
  7.70  6.30  8.60  9.50  7.90  2.60  1.60  1.10  1.40  4.10  6.20  6.70
  2.68  1.76  3.92  2.58  2.08  3.00  1.92  0.83  1.25  3.08  2.17  3.08
  0.00  0.00  0.00  0.00  0.00  0.00  0.00  0.00  0.00  0.00  0.00  0.00
  0.00  0.00  0.00  0.00  0.00  0.00  0.00  0.00  0.00  0.00  0.00  0.00
  1.30  2.14  3.22  3.74  3.81  5.15  6.80  5.93  3.72  2.81  1.49  1.21
