 .Sol file Watershed HRU:26 Subbasin:14 HRU:1 Luse:GRAS Soil: I-Rc-Xk-c-3122 Slope: 0-9999 11/14/2011 12:00:00 AM ArcSWAT 2009.93.7
 Soil Name: I-Rc-Xk-c-3122
 Soil Hydrologic Group: D
 Maximum rooting depth(m) :  690.00
 Porosity fraction from which anions are excluded: 0.500
 Crack volume potential of soil: 0.500
 Texture 1                : LOAM
 Depth                [mm]:      300.00     1000.00
 Bulk Density Moist [g/cc]:        1.40        1.50
 Ave. AW Incl. Rock Frag  :        0.12        0.12
 Ksat. (est.)      [mm/hr]:        4.45        2.48
 Organic Carbon [weight %]:        0.80        0.40
 Clay           [weight %]:       26.00       30.00
 Silt           [weight %]:       41.00       36.00
 Sand           [weight %]:       33.00       33.00
 Rock Fragments   [vol. %]:        0.00        0.00
 Soil Albedo (Moist)      :        0.10        0.23
 Erosion K                :        0.32        0.32
 Salinity (EC, Form 5)    :        0.00        0.00
                              
