 .Sol file Watershed HRU:23 Subbasin:12 HRU:1 Luse:GRAS Soil: Xk34-2ab-3302 Slope: 0-9999 11/14/2011 12:00:00 AM ArcSWAT 2009.93.7
 Soil Name: Xk34-2ab-3302
 Soil Hydrologic Group: D
 Maximum rooting depth(m) : 1000.00
 Porosity fraction from which anions are excluded: 0.500
 Crack volume potential of soil: 0.500
 Texture 1                : CLAY-LOAM
 Depth                [mm]:      300.00     1000.00
 Bulk Density Moist [g/cc]:        1.40        1.40
 Ave. AW Incl. Rock Frag  :        0.18        0.18
 Ksat. (est.)      [mm/hr]:        4.05        3.99
 Organic Carbon [weight %]:        0.80        0.40
 Clay           [weight %]:       30.00       31.00
 Silt           [weight %]:       42.00       40.00
 Sand           [weight %]:       28.00       28.00
 Rock Fragments   [vol. %]:        0.00        0.00
 Soil Albedo (Moist)      :        0.10        0.23
 Erosion K                :        0.35        0.35
 Salinity (EC, Form 5)    :        0.00        0.00
                              
