 .Sol file Watershed HRU:25 Subbasin:13 HRU:2 Luse:SHRB Soil: Rc33-3bc-3254 Slope: 0-9999 11/14/2011 12:00:00 AM ArcSWAT 2009.93.7
 Soil Name: Rc33-3bc-3254
 Soil Hydrologic Group: D
 Maximum rooting depth(m) :  780.00
 Porosity fraction from which anions are excluded: 0.500
 Crack volume potential of soil: 0.500
 Texture 1                : LOAM
 Depth                [mm]:      300.00     1000.00
 Bulk Density Moist [g/cc]:        1.50        1.50
 Ave. AW Incl. Rock Frag  :        0.10        0.10
 Ksat. (est.)      [mm/hr]:        2.68        2.67
 Organic Carbon [weight %]:        0.70        0.40
 Clay           [weight %]:       27.00       29.00
 Silt           [weight %]:       39.00       33.00
 Sand           [weight %]:       34.00       38.00
 Rock Fragments   [vol. %]:        0.00        0.00
 Soil Albedo (Moist)      :        0.13        0.23
 Erosion K                :        0.32        0.32
 Salinity (EC, Form 5)    :        0.00        0.00
                              
