 .Wgn file Subbasin: 13 STATION NAME:Khodaban 11/14/2011 12:00:00 AM ArcSWAT 2009.93.7
  LATITUDE =  36.12 LONGITUDE =  48.58
  ELEV [m] =1887.00
  RAIN_YRS =  11.00
  1.40  3.20  9.10 15.40 20.80 27.20 30.60 31.80 26.30 19.20 10.30  4.30
 -6.00 -4.90 -0.40  4.80  9.00 13.40 16.40 17.50 12.80  7.80  1.50 -3.00
  4.10  3.90  5.10  4.50  3.80  3.50  2.80  2.10  3.20  4.00  4.20  4.50
  4.80  4.40  4.10  3.80  3.30  3.40  2.90  2.70  3.10  3.10  3.60  4.50
 43.80 43.80 68.10 69.10 45.10  9.70  8.90  3.00  2.80 17.10 55.00 39.80
  7.30  7.01  8.43  7.32  5.99  4.70  3.25  4.51  2.52  3.25 10.54  4.98
  3.26  3.46  2.53  2.13  2.42  2.03  1.86  1.13  1.64  1.04  3.83  1.39
  0.23  0.23  0.20  0.28  0.23  0.06  0.05  0.02  0.02  0.10  0.17  0.21
  0.41  0.50  0.58  0.55  0.48  0.36  0.43  0.33  0.42  0.41  0.46  0.47
  8.70  8.90 10.00 11.50  9.50  2.50  2.50  0.80  1.10  4.60  7.30  8.70
  4.08  4.08  4.33  3.50  2.72  1.67  1.25  0.92  1.00  1.75  5.42  1.61
  0.00  0.00  0.00  0.00  0.00  0.00  0.00  0.00  0.00  0.00  0.00  0.00
  0.00  0.00  0.00  0.00  0.00  0.00  0.00  0.00  0.00  0.00  0.00  0.00
  5.68  7.16  8.65  9.96  8.63  8.60  8.93  9.45  7.48  6.69  6.00  6.18
