 .Wgn file Subbasin: 20 STATION NAME:Bijar 11/14/2011 12:00:00 AM ArcSWAT 2009.93.7
  LATITUDE =  35.88 LONGITUDE =  47.62
  ELEV [m] =1883.00
  RAIN_YRS =  18.00
  0.40  2.00  8.10 15.40 20.80 27.70 31.60 31.70 26.70 18.80 10.40  4.10
 -6.60 -5.70 -0.80  4.70  8.70 13.00 16.10 16.10 11.80  7.00  1.70 -2.90
  4.90  5.00  5.20  4.30  4.00  3.30  2.80  2.60  3.20  4.30  4.30  4.80
  5.30  5.50  4.20  3.70  3.30  2.80  2.50  2.50  3.00  3.50  3.70  4.90
 37.70 33.80 60.10 61.90 31.10  5.90  5.30  3.50  1.60 23.40 42.00 37.10
  4.69  5.51  7.33  8.11  4.75  4.00  4.98  3.89  3.37  5.84  7.55  6.12
  2.75  2.67  2.80  2.05  1.56  2.85  1.76  1.27  2.45  2.01  2.62  3.15
  0.26  0.24  0.25  0.23  0.15  0.05  0.03  0.02  0.02  0.12  0.15  0.18
  0.43  0.43  0.52  0.52  0.48  0.36  0.36  0.25  0.18  0.39  0.52  0.48
  9.70  8.30 10.50  9.70  6.90  2.00  1.40  0.90  0.60  4.90  7.20  8.10
  2.42  2.50  3.92  3.58  1.83  0.83  1.58  1.08  1.00  2.33  4.25  3.83
  0.00  0.00  0.00  0.00  0.00  0.00  0.00  0.00  0.00  0.00  0.00  0.00
  0.00  0.00  0.00  0.00  0.00  0.00  0.00  0.00  0.00  0.00  0.00  0.00
  6.77  8.48  9.71 11.22  9.67  8.39  7.12  7.04  7.14  7.38  7.20  7.15
