 .Sol file Watershed HRU:38 Subbasin:20 HRU:2 Luse:GRAS Soil: Xh31-3a-3288 Slope: 0-9999 11/14/2011 12:00:00 AM ArcSWAT 2009.93.7
 Soil Name: Xh31-3a-3288
 Soil Hydrologic Group: D
 Maximum rooting depth(m) : 1000.00
 Porosity fraction from which anions are excluded: 0.500
 Crack volume potential of soil: 0.500
 Texture 1                : CLAY-LOAM
 Depth                [mm]:      300.00     1000.00
 Bulk Density Moist [g/cc]:        1.50        1.50
 Ave. AW Incl. Rock Frag  :        0.18        0.18
 Ksat. (est.)      [mm/hr]:        2.43        2.85
 Organic Carbon [weight %]:        0.50        0.30
 Clay           [weight %]:       34.00       41.00
 Silt           [weight %]:       34.00       28.00
 Sand           [weight %]:       31.00       31.00
 Rock Fragments   [vol. %]:        0.00        0.00
 Soil Albedo (Moist)      :        0.19        0.27
 Erosion K                :        0.33        0.33
 Salinity (EC, Form 5)    :        0.00        0.00
                              
