Watershed atmospheric deposition file      .atm file 11/14/2011 12:00:00 AM ArcSWAT 2009.93.7




     0.000 | RAMMO_SUB : Atmospheric deposition of ammonium (mg/l)
     0.000 | RCN_SUB : Atmospheric deposition of nitrate (mg/l)
     0.000 | DRYDEP_NH4 : Atmospheric dry deposition of ammonium (kg/ha/yr)
     0.000 | DRYDEP_NO3 : Atmospheric dry deposition of nitrates (kg/ha/yr)
